*MODEL INPUT FILE            A     1     1     1     6     0
*FILES              
MODEL          SGCER    
FILEX          GATI0301.MZX
FILEA          GATI0301.MZA
FILET          GATI0301.MZT
SPECIES        SGCER040.SPE                                                                               
ECOTYPE        SGCER040.ECO                                                                               
CULTIVAR       SGCER040.CUL                                                                               
PESTS          SGCER040.PST                                                                               
SOILS          SOIL.SOL                                                                                   
WEATHER        GATI0301.WTH                                                                               
OUTPUT         GATI0301
*SIMULATION CONTROL 
                   1     1     S 2003056  2150 N X IRRIGATION, GA_TIFTON MZCER
                   Y     Y     N     N     N     N     N     N
                   M     M     E     R     S     C     R     1     G
                   A     R     R     N     M
                   Y     Y     Y     1     Y     N     Y     Y     N     N     D     N     N
!AUTOMATIC MANAGEM  
               2003050 2003064   40.  100.   30.   40.   10.
                 30.   50.  100. GS000 IR001  10.0 1.000
                 30.   50.   25. FE001 GS000
                100.     1   20.
                     0 2003057  100.    0.
*EXP.DETAILS        
  1GATI0301 MZ NIT X IRR, GA_TIFTON 2N*3I                                
*TREATMENTS         
  1 1 0 0 RAINFED LOW NITROGEN     
*CULTIVARS          
   SG IB0055 PIONEER 850    
*FIELDS             
   GATI0002 GATI0301   0.0    0. DR000    0.  100. 00000        180. IBMZ910014
          29.63000       -82.37000     40.00               1.0  100.   1.0   0.0
*INITIAL CONDITIONS 
   SG    2003032  100.    0.  1.00  1.00   0.0  1000  0.80  0.00  100.   15.
      5. 0.086   0.5   0.1
     15. 0.086   0.5   0.1
     30. 0.086   0.5   0.1
     45. 0.086   0.5   0.1
     60. 0.086   0.5   0.1
     90. 0.076   0.6   0.1
    120. 0.076   0.5   0.1
    150. 0.130   0.5   0.1
    180. 0.258   0.5   0.1
*PLANTING DETAILS   
   2003057     -99   7.2   7.2     S     R   61.    0.   7.0  -99.  -99. -99.0 -99.0   0.0
*IRRIGATION         
   1.000   30.   75.  -99. GS000 IR001   0.0
   2003063 IR001  13.0
*FERTILIZERS        
         1 FE001 AP001   10.   27.    0.    0.    0.    0.   -99
   		30 FE001 AP001   10.   35.    0.    0.    0.    0.   -99
   		45 FE001 AP001   10.   54.    0.    0.    0.    0.   -99
*RESIDUES           
*CHEMICALS          
*TILLAGE            
*ENVIRONMENT        
*HARVEST            
*SOIL               
 GAPN930001  GA_tifton  XXXXX  180.  Millhopper Fine Sand                              
 GA_Tifton USA          29.630 -82.370 Loamy,silic,hyperth Arenic Paleudult              
   -99  0.18   2.0  0.60   60.  1.00  0.90 IB001 IB001 IB001      
    5.       0.025 0.086 0.230 1.000 -99.0  1.35  2.00 -99.0 -99.0 -99.0-9.000  7.00-99.00 20.00-99.00
   15.       0.026 0.096 0.240 1.000 -99.0  1.35  1.00 -99.0 -99.0 -99.0-9.000  7.00-99.00-99.00-99.00
   30.       0.028 0.106 0.250 0.700 -99.0  1.40  1.00 -99.0 -99.0 -99.0-9.000  7.00-99.00-99.00-99.00
   45.       0.040 0.126 0.280 0.300 -99.0  1.45  0.50 -99.0 -99.0 -99.0-9.000  7.00-99.00-99.00-99.00
   60.       0.085 0.156 0.330 0.300 -99.0  1.45  0.50 -99.0 -99.0 -99.0-9.000  7.00-99.00-99.00-99.00
   90.       0.095 0.170 0.350 0.050 -99.0  1.50  0.10 -99.0 -99.0 -99.0-9.000  7.00-99.00-99.00-99.00
  120.       0.128 0.230 0.380 0.030 -99.0  1.55  0.10 -99.0 -99.0 -99.0-9.000  7.00-99.00-99.00-99.00
  150.       0.159 0.250 0.400 0.002 -99.0  1.55  0.04 -99.0 -99.0 -99.0-9.000  7.00-99.00-99.00-99.00
  180.       0.170 0.260 0.450 0.000 -99.0  1.60  0.24 -99.0 -99.0 -99.0-9.000  7.00-99.00-99.00-99.00
                    
    5.   0.0   0.0   0.0   0.0   0.0   0.0   0.0   0.0   0.0   0.0   0.0   0.0   0.0   0.0   0.0
   15.   0.0   0.0   0.0   0.0   0.0   0.0   0.0   0.0   0.0   0.0   0.0   0.0   0.0   0.0   0.0
   30.   0.0   0.0   0.0   0.0   0.0   0.0   0.0   0.0   0.0   0.0   0.0   0.0   0.0   0.0   0.0
   45.   0.0   0.0   0.0   0.0   0.0   0.0   0.0   0.0   0.0   0.0   0.0   0.0   0.0   0.0   0.0
   60.   0.0   0.0   0.0   0.0   0.0   0.0   0.0   0.0   0.0   0.0   0.0   0.0   0.0   0.0   0.0
   90.   0.0   0.0   0.0   0.0   0.0   0.0   0.0   0.0   0.0   0.0   0.0   0.0   0.0   0.0   0.0
  120.   0.0   0.0   0.0   0.0   0.0   0.0   0.0   0.0   0.0   0.0   0.0   0.0   0.0   0.0   0.0
  150.   0.0   0.0   0.0   0.0   0.0   0.0   0.0   0.0   0.0   0.0   0.0   0.0   0.0   0.0   0.0
  180.   0.0   0.0   0.0   0.0   0.0   0.0   0.0   0.0   0.0   0.0   0.0   0.0   0.0   0.0   0.0
*CULTIVAR           
IB0055 PIONEER 850      IB0001 410.0 13.60  40.0 540.0   3.0   5.5
  49.00