*MODEL INPUT FILE            A     1     1     1     6     0
*FILES              
MODEL          SGCER    
FILEX          GATI0301.MZX
FILEA          GATI0301.MZA
FILET          GATI0301.MZT
SPECIES        SGCER040.SPE                                                                               
ECOTYPE        SGCER040.ECO                                                                               
CULTIVAR       SGCER040.CUL                                                                               
PESTS          SGCER040.PST                                                                               
SOILS          SOIL.SOL                                                                                   
WEATHER        GATI0301.WTH                                                                               
OUTPUT         GATI0301
*SIMULATION CONTROL 
                   1     1     S 2003056  2150 N X IRRIGATION, GA_TIFTON MZCER
                   Y     Y     N     N     N     N     N     N
                   M     M     E     R     S     C     R     1     G
                   R     R     R     N     M
                   Y     Y     Y     1     Y     N     Y     Y     N     N     D     N     N
!AUTOMATIC MANAGEM  
               2003050 2003064   40.  100.   30.   40.   10.
                 30.   50.  100. GS000 IR001  10.0 1.000
                 30.   50.   25. FE001 GS000
                100.     1   20.
                     0 2003057  100.    0.
*EXP.DETAILS        
  1GATI0301 MZ NIT X IRR, GA_TIFTON 2N*3I                                
*TREATMENTS         
  1 1 0 0 RAINFED LOW NITROGEN     
*CULTIVARS          
   SG IB0055 PIONEER 850    
*FIELDS
   GATI0002 GATI0301   0.0    0. DR000    0.  100. 00000        180.  Millhopper Fine Sand
          29.63000       -82.37000     40.00               1.0  100.   1.0   0.0
*INITIAL CONDITIONS 
   SG    2003032  100.    0.  1.00  1.00   0.0  1000  0.80  0.00  100.   15.
      5. 0.086   0.5   0.1
     15. 0.086   0.5   0.1
     30. 0.086   0.5   0.1
     45. 0.086   0.5   0.1
     60. 0.086   0.5   0.1
     90. 0.076   0.6   0.1
    120. 0.076   0.5   0.1
    150. 0.130   0.5   0.1
    180. 0.258   0.5   0.1
*PLANTING DETAILS   
   2003057     -99   7.2   7.2     S     R   61.    0.   7.0  -99.  -99. -99.0 -99.0   0.0
*IRRIGATION         
   1.000   30.   75.  -99. GS000 IR001   0.0
   2003063 IR001  13.0
*FERTILIZERS        
   2003097 FE001 AP001   10.   27.    0.    0.    0.    0.   -99
   2003102 FE001 AP001   10.   35.    0.    0.    0.    0.   -99
   2003137 FE001 AP001   10.   54.    0.    0.    0.    0.   -99
*RESIDUES           
*CHEMICALS          
*TILLAGE            
*ENVIRONMENT        
*HARVEST            
*SOIL
 GAPN930001  GA_tifton  XXXXX  150.  MEDIUM SILTY CLAY
 Generic     Generic           -99    -99  Generic
   -99  0.11   6.0  0.20  87.0  1.00  1.00 IB001 IB001 IB001
     5   -99 0.228 0.385 0.463 1.000   -99  1.35  1.74  50.0  45.0   0.0 0.170   6.5   -99   -99   -99 
    15   -99 0.228 0.385 0.463 1.000   -99  1.35  1.74  50.0  45.0   0.0 0.170   6.5   -99   -99   -99 
    30   -99 0.228 0.385 0.459 0.638   -99  1.36  1.66  50.0  45.0   0.0 0.170   6.5   -99   -99   -99 
    45   -99 0.249 0.406 0.461 0.472   -99  1.36  1.45  50.0  45.0   0.0 0.140   6.5   -99   -99   -99 
    60   -99 0.249 0.406 0.461 0.350   -99  1.36  1.45  50.0  45.0   0.0 0.140   6.5   -99   -99   -99 
    90   -99 0.308 0.449 0.460 0.223   -99  1.37  1.09  50.0  45.0   0.0 0.110   6.5   -99   -99   -99 
   120   -99 0.207 0.341 0.460 0.122   -99  1.38  0.65  50.0  45.0   0.0 0.060   6.5   -99   -99   -99 
   150   -99 0.256 0.373 0.463 0.067   -99  1.38  0.29  50.0  45.0   0.0 0.030   6.5   -99   -99   -99 

*CULTIVAR
IB0055 PIONEER 850      IB0001 460.0 12.50  90.0 600.0   5.0   6.0
49.00
 GAPN930001  GA_tifton  XXXXX  150.  MEDIUM SILTY CLAY
 Generic     Generic           -99    -99  Generic
   -99  0.11   6.0  0.20  87.0  1.00  1.00 IB001 IB001 IB001
     5   -99 0.228 0.385 0.463 1.000   -99  1.35  1.74  50.0  45.0   0.0 0.170   6.5   -99   -99   -99 
    15   -99 0.228 0.385 0.463 1.000   -99  1.35  1.74  50.0  45.0   0.0 0.170   6.5   -99   -99   -99 
    30   -99 0.228 0.385 0.459 0.638   -99  1.36  1.66  50.0  45.0   0.0 0.170   6.5   -99   -99   -99 
    45   -99 0.249 0.406 0.461 0.472   -99  1.36  1.45  50.0  45.0   0.0 0.140   6.5   -99   -99   -99 
    60   -99 0.249 0.406 0.461 0.350   -99  1.36  1.45  50.0  45.0   0.0 0.140   6.5   -99   -99   -99 
    90   -99 0.308 0.449 0.460 0.223   -99  1.37  1.09  50.0  45.0   0.0 0.110   6.5   -99   -99   -99 
   120   -99 0.207 0.341 0.460 0.122   -99  1.38  0.65  50.0  45.0   0.0 0.060   6.5   -99   -99   -99 
   150   -99 0.256 0.373 0.463 0.067   -99  1.38  0.29  50.0  45.0   0.0 0.030   6.5   -99   -99   -99 

*CULTIVAR
IB0055 PIONEER 850      IB0001 460.0 12.50  90.0 600.0   5.0   6.0
49.00
 GAPN930001  GA_tifton  XXXXX  150.  MEDIUM SILTY CLAY
 Generic     Generic           -99    -99  Generic
   -99  0.11   6.0  0.20  87.0  1.00  1.00 IB001 IB001 IB001
     5   -99 0.228 0.385 0.463 1.000   -99  1.35  1.74  50.0  45.0   0.0 0.170   6.5   -99   -99   -99 
    15   -99 0.228 0.385 0.463 1.000   -99  1.35  1.74  50.0  45.0   0.0 0.170   6.5   -99   -99   -99 
    30   -99 0.228 0.385 0.459 0.638   -99  1.36  1.66  50.0  45.0   0.0 0.170   6.5   -99   -99   -99 
    45   -99 0.249 0.406 0.461 0.472   -99  1.36  1.45  50.0  45.0   0.0 0.140   6.5   -99   -99   -99 
    60   -99 0.249 0.406 0.461 0.350   -99  1.36  1.45  50.0  45.0   0.0 0.140   6.5   -99   -99   -99 
    90   -99 0.308 0.449 0.460 0.223   -99  1.37  1.09  50.0  45.0   0.0 0.110   6.5   -99   -99   -99 
   120   -99 0.207 0.341 0.460 0.122   -99  1.38  0.65  50.0  45.0   0.0 0.060   6.5   -99   -99   -99 
   150   -99 0.256 0.373 0.463 0.067   -99  1.38  0.29  50.0  45.0   0.0 0.030   6.5   -99   -99   -99 

*CULTIVAR
IB0055 PIONEER 850      IB0001 460.0 12.50  90.0 600.0   5.0   6.0
49.00
 GAPN930001  GA_tifton  XXXXX  150.  MEDIUM SILTY CLAY
 Generic     Generic           -99    -99  Generic
   -99  0.11   6.0  0.20  87.0  1.00  1.00 IB001 IB001 IB001
     5   -99 0.228 0.385 0.463 1.000   -99  1.35  1.74  50.0  45.0   0.0 0.170   6.5   -99   -99   -99 
    15   -99 0.228 0.385 0.463 1.000   -99  1.35  1.74  50.0  45.0   0.0 0.170   6.5   -99   -99   -99 
    30   -99 0.228 0.385 0.459 0.638   -99  1.36  1.66  50.0  45.0   0.0 0.170   6.5   -99   -99   -99 
    45   -99 0.249 0.406 0.461 0.472   -99  1.36  1.45  50.0  45.0   0.0 0.140   6.5   -99   -99   -99 
    60   -99 0.249 0.406 0.461 0.350   -99  1.36  1.45  50.0  45.0   0.0 0.140   6.5   -99   -99   -99 
    90   -99 0.308 0.449 0.460 0.223   -99  1.37  1.09  50.0  45.0   0.0 0.110   6.5   -99   -99   -99 
   120   -99 0.207 0.341 0.460 0.122   -99  1.38  0.65  50.0  45.0   0.0 0.060   6.5   -99   -99   -99 
   150   -99 0.256 0.373 0.463 0.067   -99  1.38  0.29  50.0  45.0   0.0 0.030   6.5   -99   -99   -99 

*CULTIVAR
IB0055 PIONEER 850      IB0001 460.0 12.50  90.0 600.0   5.0   6.0
49.00
 GAPN930001  GA_tifton  XXXXX  150.  MEDIUM SILTY CLAY
 Generic     Generic           -99    -99  Generic
   -99  0.11   6.0  0.20  87.0  1.00  1.00 IB001 IB001 IB001
     5   -99 0.228 0.385 0.463 1.000   -99  1.35  1.74  50.0  45.0   0.0 0.170   6.5   -99   -99   -99 
    15   -99 0.228 0.385 0.463 1.000   -99  1.35  1.74  50.0  45.0   0.0 0.170   6.5   -99   -99   -99 
    30   -99 0.228 0.385 0.459 0.638   -99  1.36  1.66  50.0  45.0   0.0 0.170   6.5   -99   -99   -99 
    45   -99 0.249 0.406 0.461 0.472   -99  1.36  1.45  50.0  45.0   0.0 0.140   6.5   -99   -99   -99 
    60   -99 0.249 0.406 0.461 0.350   -99  1.36  1.45  50.0  45.0   0.0 0.140   6.5   -99   -99   -99 
    90   -99 0.308 0.449 0.460 0.223   -99  1.37  1.09  50.0  45.0   0.0 0.110   6.5   -99   -99   -99 
   120   -99 0.207 0.341 0.460 0.122   -99  1.38  0.65  50.0  45.0   0.0 0.060   6.5   -99   -99   -99 
   150   -99 0.256 0.373 0.463 0.067   -99  1.38  0.29  50.0  45.0   0.0 0.030   6.5   -99   -99   -99 

*CULTIVAR
IB0055 PIONEER 850      IB0001 460.0 12.50  90.0 600.0   5.0   6.0
49.00
 GAPN930001  GA_tifton  XXXXX  150.  MEDIUM SILTY CLAY
 Generic     Generic           -99    -99  Generic
   -99  0.11   6.0  0.20  87.0  1.00  1.00 IB001 IB001 IB001
     5   -99 0.228 0.385 0.463 1.000   -99  1.35  1.74  50.0  45.0   0.0 0.170   6.5   -99   -99   -99 
    15   -99 0.228 0.385 0.463 1.000   -99  1.35  1.74  50.0  45.0   0.0 0.170   6.5   -99   -99   -99 
    30   -99 0.228 0.385 0.459 0.638   -99  1.36  1.66  50.0  45.0   0.0 0.170   6.5   -99   -99   -99 
    45   -99 0.249 0.406 0.461 0.472   -99  1.36  1.45  50.0  45.0   0.0 0.140   6.5   -99   -99   -99 
    60   -99 0.249 0.406 0.461 0.350   -99  1.36  1.45  50.0  45.0   0.0 0.140   6.5   -99   -99   -99 
    90   -99 0.308 0.449 0.460 0.223   -99  1.37  1.09  50.0  45.0   0.0 0.110   6.5   -99   -99   -99 
   120   -99 0.207 0.341 0.460 0.122   -99  1.38  0.65  50.0  45.0   0.0 0.060   6.5   -99   -99   -99 
   150   -99 0.256 0.373 0.463 0.067   -99  1.38  0.29  50.0  45.0   0.0 0.030   6.5   -99   -99   -99 

*CULTIVAR
IB0055 PIONEER 850      IB0001 460.0 12.50  90.0 600.0   5.0   6.0
49.00
 GAPN930001  GA_tifton  XXXXX  150.  MEDIUM SILTY CLAY
 Generic     Generic           -99    -99  Generic
   -99  0.11   6.0  0.20  87.0  1.00  1.00 IB001 IB001 IB001
     5   -99 0.228 0.385 0.463 1.000   -99  1.35  1.74  50.0  45.0   0.0 0.170   6.5   -99   -99   -99 
    15   -99 0.228 0.385 0.463 1.000   -99  1.35  1.74  50.0  45.0   0.0 0.170   6.5   -99   -99   -99 
    30   -99 0.228 0.385 0.459 0.638   -99  1.36  1.66  50.0  45.0   0.0 0.170   6.5   -99   -99   -99 
    45   -99 0.249 0.406 0.461 0.472   -99  1.36  1.45  50.0  45.0   0.0 0.140   6.5   -99   -99   -99 
    60   -99 0.249 0.406 0.461 0.350   -99  1.36  1.45  50.0  45.0   0.0 0.140   6.5   -99   -99   -99 
    90   -99 0.308 0.449 0.460 0.223   -99  1.37  1.09  50.0  45.0   0.0 0.110   6.5   -99   -99   -99 
   120   -99 0.207 0.341 0.460 0.122   -99  1.38  0.65  50.0  45.0   0.0 0.060   6.5   -99   -99   -99 
   150   -99 0.256 0.373 0.463 0.067   -99  1.38  0.29  50.0  45.0   0.0 0.030   6.5   -99   -99   -99 

*CULTIVAR
IB0055 PIONEER 850      IB0001 460.0 12.50  90.0 600.0   5.0   6.0
49.00
 GAPN930001  GA_tifton  XXXXX  150.  MEDIUM SILTY CLAY
 Generic     Generic           -99    -99  Generic
   -99  0.11   6.0  0.20  87.0  1.00  1.00 IB001 IB001 IB001
     5   -99 0.228 0.385 0.463 1.000   -99  1.35  1.74  50.0  45.0   0.0 0.170   6.5   -99   -99   -99 
    15   -99 0.228 0.385 0.463 1.000   -99  1.35  1.74  50.0  45.0   0.0 0.170   6.5   -99   -99   -99 
    30   -99 0.228 0.385 0.459 0.638   -99  1.36  1.66  50.0  45.0   0.0 0.170   6.5   -99   -99   -99 
    45   -99 0.249 0.406 0.461 0.472   -99  1.36  1.45  50.0  45.0   0.0 0.140   6.5   -99   -99   -99 
    60   -99 0.249 0.406 0.461 0.350   -99  1.36  1.45  50.0  45.0   0.0 0.140   6.5   -99   -99   -99 
    90   -99 0.308 0.449 0.460 0.223   -99  1.37  1.09  50.0  45.0   0.0 0.110   6.5   -99   -99   -99 
   120   -99 0.207 0.341 0.460 0.122   -99  1.38  0.65  50.0  45.0   0.0 0.060   6.5   -99   -99   -99 
   150   -99 0.256 0.373 0.463 0.067   -99  1.38  0.29  50.0  45.0   0.0 0.030   6.5   -99   -99   -99 

*CULTIVAR
IB0055 PIONEER 850      IB0001 460.0 12.50  90.0 600.0   5.0   6.0
49.00
 GAPN930001  GA_tifton  XXXXX  SCL.  MEDIUM SILTY CLAY
 URRAO       COLOMBIA        4.610  71.310 Inseptisols
   -99  0.13  11.5  0.65  75.0  1.00  1.00   -99   -99   -99
     5   -99 0.190 0.320 0.410 0.950  0.68  1.36  1.56  30.0  23.0   -99 0.150   4.5   -99   7.5   -99 
    10   -99 0.190 0.320 0.380 0.860  0.68  1.45  1.41  30.0  23.0   -99 0.150   4.5   -99   7.5   -99 
    15   -99 0.190 0.320 0.380 0.780  0.68  1.46  1.28  30.0  23.0   -99 0.150   4.5   -99   7.5   -99 
    20   -99 0.270 0.380 0.390 0.700  0.68  1.47  1.15  30.0  23.0   -99 0.150   4.5   -99   7.5   -99 
    25   -99 0.270 0.380 0.400 0.630  0.68  1.42  1.03  49.0  25.0   -99 0.150   4.5   -99   5.8   -99 
    30   -99 0.270 0.380 0.390 0.580  0.66  1.44  0.95  49.0  25.0   -99 0.060   4.5   -99   5.8   -99 
    35   -99 0.270 0.380 0.430 0.520  0.52  1.45  0.85  49.0  25.0   -99 0.060   4.5   -99   5.8   -99 
    40   -99 0.270 0.380 0.430 0.470  0.52  1.45  0.77  49.0  25.0   -99 0.060   4.5   -99   5.8   -99 
    70   -99 0.270 0.390 0.400 0.330  0.52  1.47  0.54  49.0  25.0   -99 0.050   4.5   -99   5.8   -99 
   120   -99 0.270 0.370 0.370 0.150  0.52  1.50  0.24  49.0  25.0   -99 0.020   4.5   -99   5.8   -99 

*CULTIVAR
IB0055 PIONEER 850      IB0001 460.0 12.50  90.0 600.0   5.0   6.0
49.00
 GAPN930001  GA_tifton  XXXXX  210.  MEDIUM SILTY CLAY
 Generic     Generic           -99    -99  Generic
   -99  0.11   6.0  0.30  85.0  1.00  1.00 IB001 IB001 IB001
     5   -99 0.228 0.385 0.481 1.000   -99  1.30  1.75  50.0  45.0   0.0 0.170   6.5   -99   -99   -99 
    15   -99 0.228 0.385 0.481 1.000   -99  1.30  1.75  50.0  45.0   0.0 0.170   6.5   -99   -99   -99 
    30   -99 0.249 0.406 0.482 0.638   -99  1.30  1.60  50.0  45.0   0.0 0.170   6.5   -99   -99   -99 
    45   -99 0.249 0.406 0.465 0.472   -99  1.35  1.45  50.0  45.0   0.0 0.140   6.5   -99   -99   -99 
    60   -99 0.249 0.406 0.465 0.350   -99  1.35  1.45  50.0  45.0   0.0 0.140   6.5   -99   -99   -99 
    90   -99 0.308 0.456 0.468 0.223   -99  1.35  1.10  50.0  45.0   0.0 0.110   6.5   -99   -99   -99 
   120   -99 0.207 0.341 0.452 0.122   -99  1.40  0.65  50.0  45.0   0.0 0.060   6.5   -99   -99   -99 
   150   -99 0.243 0.365 0.455 0.067   -99  1.40  0.30  50.0  45.0   0.0 0.030   6.5   -99   -99   -99 
   180   -99 0.259 0.361 0.457 0.037   -99  1.40  0.10  50.0  45.0   0.0 0.010   6.5   -99   -99   -99 
   210   -99 0.259 0.361 0.457 0.020   -99  1.40  0.01  50.0  45.0   0.0 0.000   6.5   -99   -99   -99 

*CULTIVAR
IB0055 PIONEER 850      IB0001 460.0 12.50  90.0 600.0   5.0   6.0
49.00
 GAPN930001  GA_tifton  XXXXX  210.  MEDIUM SILTY CLAY
 Generic     Generic           -99    -99  Generic
   -99  0.11   6.0  0.30  85.0  1.00  1.00 IB001 IB001 IB001
     5   -99 0.228 0.385 0.481 1.000   -99  1.30  1.75  50.0  45.0   0.0 0.170   6.5   -99   -99   -99 
    15   -99 0.228 0.385 0.481 1.000   -99  1.30  1.75  50.0  45.0   0.0 0.170   6.5   -99   -99   -99 
    30   -99 0.249 0.406 0.482 0.638   -99  1.30  1.60  50.0  45.0   0.0 0.170   6.5   -99   -99   -99 
    45   -99 0.249 0.406 0.465 0.472   -99  1.35  1.45  50.0  45.0   0.0 0.140   6.5   -99   -99   -99 
    60   -99 0.249 0.406 0.465 0.350   -99  1.35  1.45  50.0  45.0   0.0 0.140   6.5   -99   -99   -99 
    90   -99 0.308 0.456 0.468 0.223   -99  1.35  1.10  50.0  45.0   0.0 0.110   6.5   -99   -99   -99 
   120   -99 0.207 0.341 0.452 0.122   -99  1.40  0.65  50.0  45.0   0.0 0.060   6.5   -99   -99   -99 
   150   -99 0.243 0.365 0.455 0.067   -99  1.40  0.30  50.0  45.0   0.0 0.030   6.5   -99   -99   -99 
   180   -99 0.259 0.361 0.457 0.037   -99  1.40  0.10  50.0  45.0   0.0 0.010   6.5   -99   -99   -99 
   210   -99 0.259 0.361 0.457 0.020   -99  1.40  0.01  50.0  45.0   0.0 0.000   6.5   -99   -99   -99 

*CULTIVAR
IB0055 PIONEER 850      IB0001 460.0 12.50  90.0 600.0   5.0   6.0
49.00
